myETL/UCT_Source/20221102_1230_FO3_MK0.UCT
##C 2007.05.01
*******************************************************
	Created by Transmission Network Analyzer_FORsee (TNA_FORsee). Made by EKC Belgrade & DMS Group Novi Sad, 2012.
	95  nodes
	127  lines
	9  transformers
	9  transformer regulations
	0  tap changers
*******************************************************

##N
##ZMK
YZLZSV5  26025        0 0 119.75    5.03    4.88       0       0       0       0       0       0     0       0       0       0  
YZLZJU5  26080        0 0 119.75       0       0       0       0       0       0       0       0     0       0       0       0  
YZGROP5  26026        0 0  120.3       0       0       0       0       0       0       0       0     0       0       0       0  
YZAPAD5  26024        0 0 119.38  21.562 5.39051       0       0       0       0       0       0     0       0       0       0  
YVRUTO5  26013        0 0 118.27       0       0       0       0       0    -196       0     -15     0       0       0       0 H
YVELES52 26102        0 0 120.19 2.72363 .813305       0       0       0       0       0       0     0       0       0       0  
YVELES5  26011        0 0 120.19 3.52747 .879504       0       0       0       0       0       0     0       0       0       0  
YVELEC5  26012        0 0 120.17 8.86124 1.82521       0       0       0       0       0       0     0       0       0       0  
YVBOGD5  26463        0 2    115       0       0      -9       4       0     -55       4      -4     0       0       0       0 W
YVALAN5  26009        0 0 119.45 6.32676 3.09245       0       0       0       0       0       0     0       0       0       0  
YV.GLA5  26010        0 0  119.7 17.6185 3.52747       0       0       0       0       0       0     0       0       0       0  
YUSJE 5  26078        0 0 120.01       9    2.51       0       0       0       0       0       0     0       0       0       0  
YTPPNE5  26042        0 0 120.83       0       0       0       0       0    -210       0     -70     0       0       0       0  
YTOPIL5  26077        0 0 120.19       0       0       0       0       0       0       0       0     0       0       0       0  
YTIKVE5  26076        0 0  120.6       0       0       0       0       0    -110       0     -20     0       0       0       0 H
YTETOV52 26075        0 0 117.86 11.0742 4.32186       0       0       0       0       0       0     0       0       0       0  
YTETOV51 26074        0 0 117.92 20.2381 7.12115       0       0       0       0       0       0     0       0       0       0  
YTEARC5  26113        0 0 119.05 4.54883 1.45638       0       0       0       0       0       0     0       0       0       0  
YTE-TO5  26130        0 2    114       0       0    -200       0       0    -257       0    -120     0       0       0       0  
YSVPET5  26107        0 0 119.72       0       0       0       0       0     -36       0       0     0       0       0       0 H
YSUVOD51 26072        0 0  120.8       0       0       0       0       0       0       0       0     0       0       0       0  
YSUSIC5  26073        0 0 119.27 3.52747  .51068       0       0       0       0       0       0     0       0       0       0  
YSTRUM52 26071        0 0 119.33 6.08087  1.5415       0       0       0       0       0       0     0       0       0       0  
YSTRUM51 26070        0 0 119.34 11.1215 1.66444       0       0       0       0       0       0     0       0       0       0  
YSTRUG5  26069        0 0  116.5 13.3439 2.92222       0       0       0       0       0       0     0       0       0       0  
YSTIP252 26068        0 0 120.95 10.1379 1.52258       0       0       0       0       0       0     0       0       0       0  
YSTIP15  26067        0 0 121.17 5.50399 1.65498       0       0       0       0       0       0     0       0       0       0  
YSTIP 1  26112        0 0 424.91       0       0       0       0       0       0       0       0     0       0       0       0  
YSPILJ5  26066        0 2    116 4.88929 1.59824     -49 42.6504       0     -82       0       0     0       0       0       0 H
YSOPOT5  26065        0 0 120.22  2.4872 1.32398       0       0       0       0       0       0     0       0       0       0  
YSK 5 1  26111        0 0 420.34       0       0       0       0       0       0       0       0     0       0       0       0  
YSK  45  26063        0 0 120.11       0       0       0       0       0       0       0       0     0       0       0       0  
YSK  41  26064        0 0 421.34       0       0       0       0       0       0       0       0     0       0       0       0  
YSK  35  26062        0 0 119.47       0       0       0       0       0       0       0       0     0       0       0       0  
YSK  25  26061        0 0 120.06 8.39785 2.51557       0       0       0       0       0       0     0       0       0       0  
YSK  15  26059        0 0 119.76 21.9781 6.59155       0       0       0       0       0       0     0       0       0       0  
YSAMOK5  26057        0 0 120.13  .25534 .141856       0       0       0       0       0       0     0       0       0       0  
YRESEN5  26056        0 0 118.93 4.78526 .718735       0       0       0       0       0       0     0       0       0       0  
YRAFIN5  26055        0 0 119.45    0.26       0       0       0       0       0       0       0     0       0       0       0  
YRADOV5  26054        0 0 120.03 4.79472 .813305       0       0       0       0       0       0     0       0       0       0  
YPROBI5  26053        0 0 120.11 6.62938 3.33833       0       0       0       0       0       0     0       0       0       0  
YPRILE53 26052        0 0 119.84       0       0       0       0       0       0       0       0     0       0       0       0  
YPRILE52 26051        0 0 119.84       0       0       0       0       0       0       0       0     0       0       0       0  
YPRILE51 26050        0 0 119.84  20.465 5.27702       0       0       0       0       0       0     0       0       0       0  
YPOLOG5  26049        0 0 118.05 5.39997 1.62661       0       0       0       0       0       0     0       0       0       0  
YPETRO5  26109        0 0 120.05 6.36458  2.4872       0       0       0       0       0       0     0       0       0       0  
YOSLOM5  26045        0 2    116 .614707 1.36181     -69      0.       0    -120       0     -48     0       0       0       0 L
YOPOLE5  26044        0 0 120.63 5.11625  .76602       0       0       0       0       0       0     0       0       0       0  
YOHRID52 26047        0 0 117.24 6.48752 .974074       0       0       0       0       0       0     0       0       0       0  
YOHRID51 26046        0 0 117.09   12.54 2.43991       0       0       0       0       0       0     0       0       0       0  
YNEGOT5  26043        0 0 120.76 5.52291 2.77091       0       0       0       0       0       0     0       0       0       0  
YMKAME5  26041        0 0 119.95 2.66688 .803848       0       0       0       0       0       0     0       0       0       0  
YKUMAN52 26040        0 0 119.08  13.306 4.54883       0       0       0       0       0       0     0       0       0       0  
YKUMAN51 26039        0 0 119.09 16.5404 4.96494       0       0       0       0       0       0     0       0       0       0  
YKRATO5  26037        0 0 119.71       0       0       0       0       0       0       0       0     0       0       0       0  
YKPALA5  26038        0 0 119.59 3.88684 1.16322       0       0       0       0       0       0     0       0       0       0  
YKOZLE5  26033        0 0 119.41 15.1785 2.27915       0       0       0       0       0       0     0       0       0       0  
YKOZJA5  26106        0 0 119.85       0       0       0       0       0    -128       0     -10     0       0       0       0 H
YKOCAN5  26034        0 0 120.04  14.526 3.65987       0       0       0       0       0       0     0       0       0       0  
YKICEV5  26032        0 0 120.14 8.09522 2.01435       0       0       0       0       0       0     0       0       0       0  
YKAVAD52 26031        0 0 120.46       0       0       0       0       0       0       0       0     0       0       0       0  
YKAVAD5  26030        0 0 120.46 12.5211 6.74286       0       0       0       0       0       0     0       0       0       0  
YJUGOH5  26029        0 0 119.27       0       0       0       0       0       0       0       0     0       0       0       0  
YJUGNO5  26028        0 0 119.72 32.3147 8.75721       0       0       0       0       0       0     0       0       0       0  
YISTOK5  26027        0 0 120.03 10.3365 1.55095       0       0       0       0       0       0     0       0       0       0  
YGOSTI5  26018        0 0 118.63 14.6395 2.49666       0       0       0       0       0       0     0       0       0       0  
YGLOBO5  26017        0 2  115.8 .226969 .302625     -30      0.       0     -42       0     -17     0       0       0       0 H
YGEVGE5  26016        0 0 119.07 13.1169  2.6196       0       0       0       0       0       0     0       0       0       0  
YG.PET5  26023        0 0 119.49 15.8122 3.15865       0       0       0       0       0       0     0       0       0       0  
YG.BAB5  26015        0 0 119.69   16.72   4.511       0       0       0       0       0       0     0       0       0       0  
YFENI 5  26079        0 0 120.68       1    0.45       0       0       0       0       0       0     0       0       0       0  
YDUBRO5  26021        0 0 120.83       0       0       0       0       0       0       0       0     0       0       0       0  
YDUBRO1  26022        0 0 423.76       0       0       0       0       0       0       0       0     0       0       0       0  
YDRACE5  26118        0 0  120.1 7.42377 1.11593       0       0       0       0       0       0     0       0       0       0  
YDELCE5  26020        0 0 119.92 2.95059 .888961       0       0       0       0       0       0     0       0       0       0  
YBUNAR5  26129        0 0 119.81 15.6798 3.13973       0       0       0       0       0       0     0       0       0       0  
YBUCIM5  26008        0 0 120.33       6     4.8       0       0       0       0       0       0     0       0       0       0  
YBITOL54 26007        0 0 120.27 7.96282 1.99543       0       0       0       0       0       0     0       0       0       0  
YBITOL53 26006        0 0 120.44 9.99608 2.62906       0       0       0       0       0       0     0       0       0       0  
YBITOL52 26004        0 2    118       0       0    -144       0       0    -225       0     -70     0       0       0       0  
YBITOL5  26003        0 0 120.43 8.51133 1.70227       0       0       0       0       0       0     0       0       0       0  
YBITOL1  26005        0 3    422       0       0 -152.71 77.9333       0    -450       0    -156     0       0       0       0  
YBGNE05  26084        0 0 120.81       0       0       0       0       0       0       0       0     0       0       0       0  
YBEROV5  26002        0 0 119.95 3.42345 .576879       0       0       0       0       0       0     0       0       0       0  
YAEROD5  26001        0 0 120.03 16.1999 1.61715       0       0       0       0       0       0     0       0       0       0  
YZLZSV5Q Fict. shunt  1 0    110       0       0       0       0       0       0       0       0     0       0       0       0  
YJUGOH5Q Fict. shunt  1 0    110       0       0       0       0       0       0       0       0     0       0       0       0  
YZLZJU5Q Fict. shunt  1 0    110       0       0       0       0       0       0       0       0     0       0       0       0  
##ZXX
XSK_KP51 XSK_KP51     1 0 119.58 -.00001  .50748       0       0       0       0       0       0     0       0       0       0  
XCM_ST11 XCM_ST11     1 0 424.95 47.0583 -.41444       0       0       0       0       0       0     0       0       0       0  
XPE_SU51 XPE_SU51     1 0 119.26       0 .434354       0       0       0       0       0       0     0       0       0       0  
XFL_BI11 XFL_BI11     1 0 421.73  107.12 18.6584       0       0       0       0       0       0     0       0       0       0  
XST_VR11 XST_VR11     1 0 426.09 -318.36 8.12582       0       0       0       0       0       0     0       0       0       0  
XTH_DU11 XTH_DU11     1 0 423.01 107.048 27.1676       0       0       0       0       0       0     0       0       0       0  
XSK_UR11 XSK_UR11     1 0 419.77  156.13 29.0871       0       0       0       0       0       0     0       0       0       0  
##L
YAEROD5  YISTOK5  1 0 0.0605 0.4356  6.61157    824  138/1B
YAEROD5  YSK  45  1 0 0.2783 2.0328 28.92561    824  138B
YBEROV5  YDELCE5  1 0 3.9809 11.059 92.56198    645  184
YBEROV5  YRADOV5  1 0 4.5617 12.645 105.7851    645  173
YBITOL5  YBITOL52 1 0 1.5488 4.2955 43.80165    645  136A
YBITOL5  YBITOL52 2 0 1.5488 4.2955 43.80165    645  136B
YBITOL5  YBITOL54 1 0 0.7381 2.0449 17.35537    645  121/3
YBITOL5  YPRILE51 1 0 4.0051  11.12 93.38842    645  109
YBITOL5  YSOPOT5  1 0 5.9532 12.584 81.81817    488  107/2
YBITOL52 YBITOL53 1 0  1.452 4.0293 41.32231    645  164B
YBITOL52 YBITOL54 1 0 2.9282 8.1191 83.47107    645  164/1A
YBITOL52 YSUVOD51 1 0  0.363 1.0285  10.7438    645  149A
YBITOL52 YSUVOD51 2 0  0.363 1.0285  10.7438    645  149B
YBITOL1  YDUBRO1  1 0   2.56  23.04 304.5625   1758  446
YBITOL1  YSK  41  1 0   3.52  31.36    414.5   1758  447
YBITOL1  XFL_BI11 1 1   0.48    4.8  63.1875   1241  450
YBITOL53 YBITOL54 1 0 1.4762 4.0898 42.14876    645  164/2A
YBITOL54 YRESEN5  1 0 3.1218 8.6515 72.72727    645  121/2
YBUCIM5  YDUBRO5  1 0 3.8357 10.624  89.2562    645  137
YBUCIM5  YRADOV5  1 0 1.2463 3.4606 28.92561    645  132/1
YBUCIM5  YSTIP252 1 0 2.5894 7.1995 60.33058    645  131/2
YVALAN5  YGEVGE5  1 0 2.2869 6.3404 52.89255    645  160
YVALAN5  YDUBRO5  1 0 4.6827 12.971 109.0908    645  117/2
YVALAN5  YSTRUM52 1 0  3.025 6.4009 41.32231    488  118
YVALAN5  YVBOGD5  1 0 2.2869   4.84 31.40496    645  199
YV.GLA5  YG.BAB5  1 0 0.4719 1.3189  10.7438    824  158
YV.GLA5  YSK  15  1 0 0.2299 0.6292 4.958678    824  156
YVELES5  YVELEC5  1 0 0.5808 1.2342 8.264462    488  162
YVELES5  YOPOLE5  1 0 3.4243 7.9013 57.02479    488  105/1
YVELES5  YTOPIL5  1 0 0.2783 0.7623  6.61157    645  128
YVELES5  YTOPIL5  2 0 0.2904 0.7865  6.61157    645  127
YVELES5  YVELES52 1 0  0.121 0.3267 2.479339    645  113/1A
YVELES5  YPETRO5  1 0 3.0976 8.5789 71.90083    645  101/3
YVELEC5  YVELES52 1 0  0.242 0.6655 5.785124    645  189
YVRUTO5  YGOSTI5  1 0 0.9801 2.7104 22.31405    645  194
YVRUTO5  YPOLOG5  1 0 1.6093 4.4528 37.19007    645  190
YVRUTO5  YSK  15  1 0 5.2151  20.86 186.7769    824  198
YVRUTO5  YSPILJ5  1 0 5.4208 15.052 126.4462    645  111
YG.BAB5  YSK  15  1 0 0.1936 1.4157 20.66116    824  157
YGLOBO5  YSPILJ5  1 0 1.6093 4.4528 37.19007    645  112
YGLOBO5  YSTRUG5  1 0 3.8599 10.696 90.08264    645  120/1
YGOSTI5  YJUGOH5  1 0 4.3197 11.979 100.8264    645  108/1A
YGOSTI5  YOSLOM5  1 0 4.4044 12.209 102.4793    645  188
YDELCE5  YMKAME5  1 0 2.2022 6.1105 51.23967    645  170
YDUBRO5  YKAVAD5  1 0 1.5851 4.3923 37.19007    645  117/1
YDUBRO5  YTPPNE5  1 0 0.0484  0.484  6.61157    645  134
YDUBRO5  YTPPNE5  2 0 0.0484  0.484  6.61157   2052  135
YDUBRO5  YNEGOT5  1 0 0.6292 1.7545 14.87603    645  139
YDUBRO5  YFENI 5  1 0 1.5246 6.1105 54.54544   1648  163A
YDUBRO5  YFENI 5  2 0 1.5246 6.1105 54.54544   1648  163B
YDUBRO1  YSK  41  1 0   2.56 22.879 300.9375   1758  421
YDUBRO1  YSTIP 1  1 0   1.28   11.2  148.625   1758  448
YDUBRO1  XTH_DU11 1 1    1.6   15.2   199.75   1241  422
YG.PET5  YSK  15  1 0 1.3189 3.6663 30.57851    645  108/3
YG.PET5  YSK  35  1 0 2.4805 6.8607 57.85123    645  108/2
YZAPAD5  YKOZLE5  1 0 0.3388   1.21  10.7438    645  133/154
YZAPAD5  YSK  35  1 0 0.3388 0.9196 7.438016    645  133A
YZLZSV5  YSK  15  1 0 0.0847 0.8228 11.57025   1023  123A
YZLZSV5  YSK  15  2 0 0.0847 0.8228 11.57025   1023  123B
YZLZSV5  YSK  15  3 0 0.0847 0.7986 11.57025   1023  124A
YZLZSV5  YSK  15  4 0 0.0847 0.7986 11.57025   1023  124B
YZLZSV5  YZLZJU5  1 0  0.242 0.6655 5.785124    519             
YZLZSV5  YZLZJU5  2 0  0.242 0.6655 5.785124    519             
YZGROP5  YKAVAD5  1 0 3.1218 8.6515 72.72727    645  113/2
YZGROP5  YVELES52 1 0 1.5488 4.2955 36.36364    645  113/1B
YISTOK5  YSK  45  1 0 0.8591 2.3716  19.8347    824  138/1A
YJUGNO5  YSK  45  1 0 0.8349 2.3111 19.00826    645  182A
YJUGOH5  YSK  15  1 0 0.8349 2.3111 19.00826    645  182B
YJUGOH5  YSK  35  1 0 4.9368 13.697 114.8759    645  108/1B
YJUGOH5  YTEARC5  1 0 0.4235 1.1858 9.917356    645  103/1
YKAVAD5  YKAVAD52 1 0 0.2178 0.5929 4.958678    645  166
YKAVAD5  YPRILE51 1 0 5.2393  14.52 121.4876    645  122
YKAVAD5  YTIKVE5  1 0  0.968 2.6741 22.31405    645  114
YKICEV5  YOSLOM5  1 0 2.5047 5.1304 40.49586    488  106/2
YKICEV5  YSOPOT5  1 0 6.4614 13.649  89.2562    488  107/1
YKOZLE5  YSK  35  1 0 0.2299 0.9317 9.917356    824  154AB
YKOCAN5  YMKAME5  1 0 2.4684 6.8365 57.02479    645  171
YKOCAN5  YSTIP15  1 0 5.3966 11.398 74.38017    488  115
YKRATO5  YKPALA5  1 0   2.42 6.7034 56.19834    645  172
YKRATO5  YKUMAN51 1 0 6.4977 13.733  89.2562    488  119/2
YKRATO5  YPROBI5  1 0 3.4001 7.1753 47.10744    488  119/3
YKPALA5  XSK_KP51 1 1 1.5246 4.2229 35.53718    645  180
YKUMAN51 YKUMAN52 1 0 0.5324 1.4883 14.87603    645  159A
YKUMAN51 YSK  15  1 0 4.9852 10.539 68.59504    488  119/1
YKUMAN52 YRAFIN5  1 0 2.0207 5.6144 47.10744    645  117
YOPOLE5  YSTIP15  1 0 3.2065 7.0543 47.93388    488  105/2
YOSLOM5  YSAMOK5  1 0 2.0812 5.7717 48.76033    645  144
YOHRID51 YOHRID52 1 0 0.4114 1.1495 9.917356    645  183
YOHRID51 YSTRUG5  1 0 3.1702 8.7725 73.55371    645  120/2
YOHRID52 YRESEN5  1 0 4.1866 11.616 97.52066    645  121/1
YPOLOG5  YTETOV51 1 0 2.2143 6.1347 51.23967    645  103/2B
YPRILE51 YPRILE52 1 0 0.2178 0.5929 5.785124    645  148AB
YPRILE51 YPRILE53 1 0 0.6534  1.815 14.87603    645  155
YPROBI5  YSTIP15  1 0 4.8884 10.333 66.94214    488  116
YRADOV5  YSTRUM51 1 0 3.5453 9.8373 82.64463    645  132/2
YRAFIN5  YBUNAR5  1 0 2.0691 5.7475 47.93388    645  145/2
YSAMOK5  YKOZJA5  1 0 2.6741 7.4294 61.98347    645  143/1
YSK  15  YSK  45  2 0 2.0207 5.6144 47.10744    645  101/1
YSK  15  YTE-TO5  1 0 1.7666 4.8884 50.41321    824  110/3
YSK  25  YSK  45  1 0 0.5082 1.4157 11.57025    645  130/2
YSK  25  YSK  45  2 0 0.3388 1.3794  12.3967    824  110/1
YSK  25  YUSJE 5  1 0 0.3509 0.7381 4.958678    488  129
YSK  35  YSK  45  1 0 1.8513 5.1425  42.9752    645  130/1
YSK  35  YSVPET5  1 0  2.178 6.0379 61.98347    824  143/3
YSK  45  YPETRO5  1 0 1.3552 3.7631 38.84297    645  101/2
YSK  45  YDRACE5  1 0 0.3388 0.9196 7.438016    645  146A
YSK  45  YDRACE5  2 0 0.3388 0.9196 7.438016    645  146B
YSK  45  YBUNAR5  1 0 0.8349 2.3111 19.00826    645  145/1
YSK  45  YTE-TO5  1 0 1.1495 3.2065 33.05785    824  110/3
YSK  41  YSK 5 1  1 0   0.64    5.6 73.06249   1758  420/2
YSTIP15  YSTIP252 1 0 0.6413 1.7787 14.87603    645  131/2
YSTRUM51 YSTRUM52 1 0 0.2299 0.6292 4.958678    645  176
YSTRUM51 YSUSIC5  1 0 2.0086 5.5781 47.10744    645  140
YSUVOD51 YBGNE05  1 0  0.605 2.7951  32.2314    645  149B
YSUSIC5  XPE_SU51 1 1 1.3189 3.6663 30.57851    645  141
YTETOV51 YTETOV52 1 0 0.3025 0.8228  6.61157    645  185
YTETOV51 YTEARC5  1 0 2.4684 6.8365 57.02479    645  103/2
YTIKVE5  YFENI 5  1 0 0.5082 1.4157 11.57025    645  165A
YKOZJA5  YSVPET5  1 0 1.1737 3.2428 27.27273    645  143/2
YSK 5 1  XSK_UR11 1 1   0.64   6.24   82.875   1758  420/1
YSTIP 1  XCM_ST11 1 1   0.64   6.24   82.875   1758  449
YSTIP 1  XST_VR11 1 1   1.44  12.32 167.5625   1919  423
YZLZSV5  YZLZSV5Q 1 9      0   0.05        0        YZLZSV5Q_UCT
YJUGOH5  YJUGOH5Q 1 9      0   0.05        0        YJUGOH5Q_UCT
YZLZJU5  YZLZJU5Q 1 9      0   0.05        0        YZLZJU5Q_UCT
YZLZJU5  YZLZJU5Q 2 9      0   0.05        0        YZLZJU5Q_UCT
YZLZJU5  YZLZJU5Q 3 9      0   0.05        0        YZLZJU5Q_UCT
##T
YBITOL52 YBITOL1  1 8   115   400   300 0.1321 5.2854        0      0   1506  BT 2
YBITOL52 YBITOL1  2 0   115   400   300 0.1321 5.4175        0      0   1506  BT 2
YDUBRO5  YDUBRO1  1 0   115   400   300 0.1321 5.2854        0      0   1506  DUBROVO
YDUBRO5  YDUBRO1  2 8   115   400   300 0.1321 5.4175        0      0   1506  DUBROVO
YSK  15  YSK 5 1  1 0   115   400   300 0.1321 5.4175        0      0   1506  SK 5
YSK  15  YSK 5 1  2 0   115   400   300 0.1321 5.4175        0      0   1506  SK 5
YSK  45  YSK  41  1 0   115   400   300 0.1321 5.4175        0      0   1506  SK 4
YSK  45  YSK  41  2 0   115   400   300 0.1321 5.4175        0      0   1506  SK 4
YSTIP15  YSTIP 1  1 0   115   400   300 0.1321 5.2854        0      0   1506  STIP
##R
YBITOL52 YBITOL1  1   2.5  1   0                                
YBITOL52 YBITOL1  2   2.5  1   0                                
YDUBRO5  YDUBRO1  1   2.5  1   0                                
YDUBRO5  YDUBRO1  2   2.5  1   0                                
YSK  15  YSK 5 1  1   2.5  1   0                                
YSK  15  YSK 5 1  2   2.5  1   0                                
YSK  45  YSK  41  1   2.5  1   0                                
YSK  45  YSK  41  2   2.5  1   0                                
YSTIP15  YSTIP 1  1   2.5  1   0                                
##TT
##E
